# generated using pymatgen
data_DyCuSe2
_symmetry_space_group_name_H-M   P3m1
_cell_length_a   4.09842307
_cell_length_b   4.09842307
_cell_length_c   6.41445601
_cell_angle_alpha   90.00000000
_cell_angle_beta   90.00000000
_cell_angle_gamma   120.00000000
_symmetry_Int_Tables_number   156
_chemical_formula_structural   DyCuSe2
_chemical_formula_sum   'Dy1 Cu1 Se2'
_cell_volume   93.30910797
_cell_formula_units_Z   1
loop_
 _symmetry_equiv_pos_site_id
 _symmetry_equiv_pos_as_xyz
  1  'x, y, z'
  2  '-y, x-y, z'
  3  '-x+y, -x, z'
  4  '-y, -x, z'
  5  '-x+y, y, z'
  6  'x, x-y, z'
loop_
 _atom_site_type_symbol
 _atom_site_label
 _atom_site_symmetry_multiplicity
 _atom_site_fract_x
 _atom_site_fract_y
 _atom_site_fract_z
 _atom_site_occupancy
  Dy  Dy0  1  0.000000  0.000000  0.510584  1
  Cu  Cu1  1  0.666667  0.333333  0.132616  1
  Se  Se2  1  0.333333  0.666667  0.234818  1
  Se  Se3  1  0.666667  0.333333  0.748081  1
